2021-06-02 17:58:36: ./create_newcase --case FCSD_GEOSChem2 --compset FCSD_GC --res f19_f19_mg17 --run-unsupported --handle-preexisting-dirs u
 ---------------------------------------------------
2021-06-02 17:58:36: Compset longname is HIST_CAM60%GC%SDYN_CLM50%SP_CICE%PRES_DOCN%DOM_MOSART_SGLC_SWAV
 ---------------------------------------------------
2021-06-02 17:58:36: Compset specification file is /glade/u/home/fritzt/CESM-GC_13.0.0/cesm_standard/cesm.2.1.1/components/cam//cime_config/config_compsets.xml
 ---------------------------------------------------
2021-06-02 17:58:36: Pes     specification file is /glade/u/home/fritzt/CESM-GC_13.0.0/cesm_standard/cesm.2.1.1/components/cam//cime_config/config_pes.xml
 ---------------------------------------------------
2021-06-02 17:58:36: Forcing is Historic transient 
 ---------------------------------------------------
2021-06-02 17:58:36: Using None coupler instances
 ---------------------------------------------------
2021-06-02 17:58:36: Component ATM is CAM cam6 physics:GEOS-Chem troposphere/stratosphere chemistry :
 ---------------------------------------------------
2021-06-02 17:58:36: ATM_GRID is 1.9x2.5
 ---------------------------------------------------
2021-06-02 17:58:36: Component LND is clm5.0:Satellite phenology:
 ---------------------------------------------------
2021-06-02 17:58:36: LND_GRID is 1.9x2.5
 ---------------------------------------------------
2021-06-02 17:58:36: Component ICE is Sea ICE (cice) model version 5 :prescribed cice
 ---------------------------------------------------
2021-06-02 17:58:36: ICE_GRID is 1.9x2.5
 ---------------------------------------------------
2021-06-02 17:58:36: Component OCN is DOCN   prescribed ocean mode
 ---------------------------------------------------
2021-06-02 17:58:36: OCN_GRID is 1.9x2.5
 ---------------------------------------------------
2021-06-02 17:58:36: Component ROF is MOSART: MOdel for Scale Adaptive River Transport
 ---------------------------------------------------
2021-06-02 17:58:36: ROF_GRID is r05
 ---------------------------------------------------
2021-06-02 17:58:36: Component GLC is Stub glacier (land ice) component
 ---------------------------------------------------
2021-06-02 17:58:36: GLC_GRID is null
 ---------------------------------------------------
2021-06-02 17:58:36: Component WAV is Stub wave component
 ---------------------------------------------------
2021-06-02 17:58:36: WAV_GRID is null
 ---------------------------------------------------
2021-06-02 17:58:36: ESP_GRID is None
 ---------------------------------------------------
